Circuit: * C:\Users\super\Documents\LTspiceXVII\Draft4.asc

Direct Newton iteration for .op point succeeded.

Date: Tue Oct 06 14:30:02 2020
Total elapsed time: 0.095 seconds.

tnom = 27
temp = 27
method = modified trap
totiter = 2452
traniter = 2448
tranpoints = 1043
accept = 1043
rejected = 0
matrix size = 7
fillins = 0
solver = Normal
Matrix Compiler1: 178 bytes object code size  0.0/0.0/[0.0]
Matrix Compiler2:      37 opcodes  0.1/[0.1]/0.1

