Circuit: * C:\Users\super\Documents\LTspiceXVII\Draft3.asc

.OP point found by inspection.

Date: Tue Oct 06 14:22:19 2020
Total elapsed time: 0.067 seconds.

tnom = 27
temp = 27
method = modified trap
totiter = 3098
traniter = 3098
tranpoints = 1274
accept = 1157
rejected = 117
matrix size = 8
fillins = 0
solver = Normal
Matrix Compiler1: 318 bytes object code size  0.1/0.1/[0.1]
Matrix Compiler2: 574 bytes object code size  0.1/0.1/[0.1]

