Circuit: * C:\Users\super\Documents\LTspiceXVII\Draft6.asc

.OP point found by inspection.

Date: Tue Oct 06 14:57:11 2020
Total elapsed time: 0.054 seconds.

tnom = 27
temp = 27
method = modified trap
totiter = 4351
traniter = 4351
tranpoints = 1814
accept = 1528
rejected = 286
matrix size = 4
fillins = 0
solver = Normal
Matrix Compiler1: 100 bytes object code size  0.0/0.0/[0.0]
Matrix Compiler2: off  [0.0]/0.0/0.0

