Circuit: * C:\Users\super\Documents\LTspiceXVII\Draft5.asc

.OP point found by inspection.

Date: Tue Oct 06 14:39:49 2020
Total elapsed time: 0.167 seconds.

tnom = 27
temp = 27
method = modified trap
totiter = 17057
traniter = 17057
tranpoints = 4341
accept = 2881
rejected = 1460
matrix size = 6
fillins = 0
solver = Normal
Matrix Compiler1:      14 opcodes  0.1/[0.0]/0.1
Matrix Compiler2: off  [0.0]/0.1/0.0

