Circuit: * C:\Users\super\Documents\LTspiceXVII\Draft2.asc

Error on line 2 : vth n001 0 v
	 Unknown parameter "v"
Vth: Missing value, assumed 0V @ DC

Date: Tue Oct 06 13:49:20 2020
Total elapsed time: 0.034 seconds.

tnom = 27
temp = 27
method = trap
totiter = 221
traniter = 0
tranpoints = 0
accept = 0
rejected = 0
matrix size = 6
fillins = 0
solver = Normal
Matrix Compiler1: 182 bytes object code size  0.1/0.0/[0.0]
Matrix Compiler2: off  [0.0]/0.1/0.0

