Circuit: * C:\Users\super\Documents\LTspiceXVII\Draft5.asc

Direct Newton iteration for .op point succeeded.

Date: Sun Dec 20 10:44:06 2020
Total elapsed time: 0.060 seconds.

tnom = 27
temp = 27
method = modified trap
totiter = 2095
traniter = 2088
tranpoints = 1045
accept = 1045
rejected = 0
matrix size = 11
fillins = 1
solver = Normal
Matrix Compiler1: 432 bytes object code size  0.1/0.1/[0.1]
Matrix Compiler2: 855 bytes object code size  0.1/0.1/[0.1]

