Circuit: * C:\Users\super\Documents\LTspiceXVII\Draft2.asc

Direct Newton iteration for .op point succeeded.

Date: Fri Dec 04 15:25:42 2020
Total elapsed time: 0.214 seconds.

tnom = 27
temp = 27
method = modified trap
totiter = 10238
traniter = 10216
tranpoints = 3141
accept = 2482
rejected = 659
matrix size = 11
fillins = 5
solver = Normal
Matrix Compiler1: 814 bytes object code size  0.2/0.1/[0.1]
Matrix Compiler2: off  [0.1]/0.1/0.1

