Circuit: * C:\Users\super\Documents\LTspiceXVII\Q1.asc


Date: Wed Oct 21 20:49:35 2020
Total elapsed time: 0.054 seconds.

tnom = 27
temp = 27
method = trap
totiter = 186
traniter = 0
tranpoints = 0
accept = 0
rejected = 0
matrix size = 10
fillins = 0
solver = Normal
Matrix Compiler1: 470 bytes object code size  0.1/0.1/[0.0]
Matrix Compiler2: 706 bytes object code size  0.1/0.1/[0.0]

