Circuit: * C:\Users\super\Documents\LTspiceXVII\EXP_3\Q3.asc

Direct Newton iteration for .op point succeeded.

Date: Sun Dec 20 14:57:35 2020
Total elapsed time: 0.054 seconds.

tnom = 27
temp = 27
method = modified trap
totiter = 3508
traniter = 3500
tranpoints = 1751
accept = 1360
rejected = 391
matrix size = 8
fillins = 0
solver = Normal
Matrix Compiler1: 336 bytes object code size  0.1/0.1/[0.1]
Matrix Compiler2: 576 bytes object code size  0.1/0.1/[0.1]

