Circuit: * C:\Users\super\Documents\LTspiceXVII\EXP_2\Q1.asc

Direct Newton iteration for .op point succeeded.

Date: Sun Dec 20 16:22:45 2020
Total elapsed time: 0.142 seconds.

tnom = 27
temp = 27
method = modified trap
totiter = 12011
traniter = 12007
tranpoints = 5615
accept = 3500
rejected = 2115
matrix size = 11
fillins = 1
solver = Normal
Matrix Compiler1:      26 opcodes  0.1/[0.1]/0.1
Matrix Compiler2: 855 bytes object code size  0.1/0.1/[0.1]

