Circuit: * C:\Users\super\Documents\LTspiceXVII\EXP_2\Q2.asc

Error on line 10 : v2 n006 0 v
	 Unknown parameter "v"
V2: Missing value, assumed 0V @ DC
Direct Newton iteration for .op point succeeded.

Date: Sun Dec 20 16:46:11 2020
Total elapsed time: 0.040 seconds.

tnom = 27
temp = 27
method = trap
totiter = 210
traniter = 0
tranpoints = 0
accept = 0
rejected = 0
matrix size = 12
fillins = 1
solver = Normal
Matrix Compiler1: 482 bytes object code size  0.1/0.1/[0.1]
Matrix Compiler2: 982 bytes object code size  0.1/0.1/[0.0]

