Circuit: * C:\Users\super\Documents\LTspiceXVII\EXP_2\Q3.asc

Direct Newton iteration for .op point succeeded.

Date: Sun Dec 20 16:55:50 2020
Total elapsed time: 0.200 seconds.

tnom = 27
temp = 27
method = modified trap
totiter = 11232
traniter = 11228
tranpoints = 5575
accept = 3500
rejected = 2075
matrix size = 12
fillins = 1
solver = Normal
Matrix Compiler1:      29 opcodes  0.1/[0.1]/0.1
Matrix Compiler2: 982 bytes object code size  0.1/0.1/[0.1]

