Circuit: * C:\Users\super\Documents\LTspiceXVII\EXP_2\Q4.asc

Direct Newton iteration for .op point succeeded.

Date: Sun Dec 20 17:05:52 2020
Total elapsed time: 0.140 seconds.

tnom = 27
temp = 27
method = modified trap
totiter = 11812
traniter = 11808
tranpoints = 5595
accept = 3500
rejected = 2095
matrix size = 18
fillins = 15
solver = Normal
Matrix Compiler1: 1.53 KB object code size  0.4/0.1/[0.1]
Matrix Compiler2: 2.18 KB object code size  0.2/0.2/[0.1]

