Circuit: * C:\Users\super\Documents\LTspiceXVII\EXP_2\Q5.asc

Direct Newton iteration failed to find .op point.  (Use ".option noopiter" to skip.)
Starting Gmin stepping
Gmin = 10
Gmin = 1.07374
Gmin = 0.115292
Gmin = 0.0123794
Gmin = 0.00132923
Gmin = 0.000142725
Gmin = 1.5325e-005
Gmin = 1.6455e-006
Gmin = 1.76685e-007
Gmin = 1.89714e-008
Gmin = 2.03704e-009
Gmin = 2.18725e-010
Gmin = 2.34854e-011
Gmin = 2.52173e-012
Gmin = 2.70769e-013
Gmin = 0
Gmin stepping succeeded in finding the operating point.


Date: Sun Dec 20 17:28:06 2020
Total elapsed time: 0.110 seconds.

tnom = 27
temp = 27
method = modified trap
totiter = 5014
traniter = 4566
tranpoints = 1640
accept = 1421
rejected = 219
matrix size = 16
fillins = 2
solver = Normal
Matrix Compiler1: 776 bytes object code size  0.2/0.1/[0.1]
Matrix Compiler2: 1.38 KB object code size  0.1/0.2/[0.1]

