Circuit: * C:\Users\super\Documents\LTspiceXVII\EXP_2\Q6.asc

Direct Newton iteration for .op point succeeded.

Date: Sun Dec 20 17:34:11 2020
Total elapsed time: 0.119 seconds.

tnom = 27
temp = 27
method = modified trap
totiter = 6530
traniter = 6523
tranpoints = 2159
accept = 1827
rejected = 332
matrix size = 11
fillins = 1
solver = Normal
Matrix Compiler1: 468 bytes object code size  0.1/0.1/[0.1]
Matrix Compiler2: off  [0.1]/0.1/0.1

