Circuit: * C:\Users\super\Documents\LTspiceXVII\EXP_5\Q1.asc

Direct Newton iteration for .op point succeeded.

Date: Sun Dec 20 20:23:25 2020
Total elapsed time: 0.141 seconds.

tnom = 27
temp = 27
method = trap
totiter = 4
traniter = 0
tranpoints = 0
accept = 0
rejected = 0
matrix size = 11
fillins = 3
solver = Normal
Matrix Compiler1:      31 opcodes
Matrix Compiler2: 1015 bytes object code size
