Circuit: * C:\Users\super\Documents\LTspiceXVII\EXP_5\Q2.asc

Direct Newton iteration for .op point succeeded.

Date: Sun Dec 20 20:34:28 2020
Total elapsed time: 0.097 seconds.

tnom = 27
temp = 27
method = trap
totiter = 4
traniter = 0
tranpoints = 0
accept = 0
rejected = 0
matrix size = 10
fillins = 1
solver = Normal
Matrix Compiler1:      28 opcodes
Matrix Compiler2: 842 bytes object code size
