Circuit: * C:\Users\super\Documents\LTspiceXVII\EXP_4\Q1.asc

Direct Newton iteration for .op point succeeded.

Date: Sun Dec 20 21:20:56 2020
Total elapsed time: 0.059 seconds.

tnom = 27
temp = 27
method = modified trap
totiter = 2267
traniter = 2263
tranpoints = 1098
accept = 1087
rejected = 11
matrix size = 11
fillins = 1
solver = Normal
Matrix Compiler1: 486 bytes object code size  0.1/0.1/[0.1]
Matrix Compiler2: 897 bytes object code size  0.1/0.1/[0.1]

