Circuit: * C:\Users\super\Documents\LTspiceXVII\EXP_4\Q2.asc

Direct Newton iteration for .op point succeeded.

Date: Sun Dec 20 18:24:11 2020
Total elapsed time: 0.135 seconds.

tnom = 27
temp = 27
method = modified trap
totiter = 5749
traniter = 5734
tranpoints = 2131
accept = 1838
rejected = 293
matrix size = 11
fillins = 5
solver = Normal
Matrix Compiler1: 814 bytes object code size  0.3/0.2/[0.1]
Matrix Compiler2: 1.16 KB object code size  0.2/0.2/[0.2]

