Circuit: * C:\Users\super\Documents\LTspiceXVII\EXP_4\Q3.asc

Direct Newton iteration for .op point succeeded.

Date: Sun Dec 20 19:16:48 2020
Total elapsed time: 0.251 seconds.

tnom = 27
temp = 27
method = modified trap
totiter = 21402
traniter = 21390
tranpoints = 9745
accept = 8123
rejected = 1622
matrix size = 11
fillins = 1
solver = Normal
Matrix Compiler1: 512 bytes object code size  0.2/0.1/[0.1]
Matrix Compiler2: 969 bytes object code size  0.1/0.2/[0.1]

