Circuit: * C:\Users\super\Documents\LTspiceXVII\EXP_4\Q5.asc

Direct Newton iteration failed to find .op point.  (Use ".option noopiter" to skip.)
Starting Gmin stepping
Gmin = 10
Gmin = 1.07374
Gmin = 0.115292
Gmin = 0.0123794
Gmin = 0.00132923
Gmin = 0.000142725
Gmin = 1.5325e-005
Gmin = 1.6455e-006
Gmin = 1.76685e-007
Gmin = 1.89714e-008
Gmin = 2.03704e-009
Gmin = 2.18725e-010
Gmin = 2.34854e-011
Gmin = 2.52173e-012
Gmin = 2.70769e-013
Gmin = 0
Gmin stepping succeeded in finding the operating point.


Date: Sun Dec 20 23:04:29 2020
Total elapsed time: 0.155 seconds.

tnom = 27
temp = 27
method = modified trap
totiter = 7540
traniter = 7091
tranpoints = 2854
accept = 2308
rejected = 546
matrix size = 18
fillins = 17
solver = Normal
Matrix Compiler1: 1.92 KB object code size  0.3/0.2/[0.1]
Matrix Compiler2: 2.08 KB object code size  0.2/0.3/[0.1]

